<?xml version="1.0" encoding="UTF-8"?>

<!-- generated on 01/22/20 17:30:00 by Eclipse SUMO netedit Version 1.3.1
<configuration xmlns:xsi="http://www.w3.org/2001/XMLSchema-instance" xsi:noNamespaceSchemaLocation="http://sumo.dlr.de/xsd/netconvertConfiguration.xsd">

    <input>
        <sumo-net-file value="D:\sumo_projects\intersection\intersection.net.xml"/>
    </input>

    <output>
        <output-file value="D:\sumo_projects\intersection\intersection.net.xml"/>
    </output>

    <processing>
        <geometry.max-grade.fix value="false"/>
        <offset.disable-normalization value="true"/>
        <opposites.guess.fix-lengths value="true"/>
        <lefthand value="false"/>
    </processing>

    <junctions>
        <no-turnarounds value="true"/>
        <junctions.corner-detail value="5"/>
        <junctions.limit-turn-speed value="5.5"/>
        <rectangular-lane-cut value="false"/>
    </junctions>

    <pedestrian>
        <walkingareas value="false"/>
    </pedestrian>

</configuration>
-->

<net version="1.3" junctionCornerDetail="5" limitTurnSpeed="5.50" xmlns:xsi="http://www.w3.org/2001/XMLSchema-instance" xsi:noNamespaceSchemaLocation="http://sumo.dlr.de/xsd/net_file.xsd">

    <location netOffset="0.00,0.00" convBoundary="-214.50,-214.50,214.50,214.50" origBoundary="-10000000000.00,-10000000000.00,10000000000.00,10000000000.00" projParameter="!"/>

    <edge id=":gneJ11_0" function="internal">
        <lane id=":gneJ11_0_0" index="0" speed="6.62" length="9.27" width="3.50" shape="-8.75,14.50 -9.11,11.98 -10.19,10.19 -11.98,9.11 -14.50,8.75"/>
    </edge>
    <edge id=":gneJ11_1" function="internal">
        <lane id=":gneJ11_1_0" index="0" speed="13.89" length="29.00" width="3.50" shape="-5.25,14.50 -5.25,-14.50"/>
    </edge>
    <edge id=":gneJ11_2" function="internal">
        <lane id=":gneJ11_2_0" index="0" speed="10.44" length="24.82" width="3.50" shape="-1.75,14.50 -0.29,8.73 3.50,3.50 8.73,-0.29 14.50,-1.75"/>
    </edge>
    <edge id=":gneJ11_3" function="internal">
        <lane id=":gneJ11_3_0" index="0" speed="6.62" length="9.27" width="3.50" shape="14.50,8.75 11.98,9.11 10.19,10.19 9.11,11.98 8.75,14.50"/>
    </edge>
    <edge id=":gneJ11_4" function="internal">
        <lane id=":gneJ11_4_0" index="0" speed="13.89" length="29.00" width="3.50" shape="14.50,5.25 -14.50,5.25"/>
    </edge>
    <edge id=":gneJ11_5" function="internal">
        <lane id=":gneJ11_5_0" index="0" speed="10.44" length="24.82" width="3.50" shape="14.50,1.75 8.73,0.29 3.50,-3.50 -0.29,-8.73 -1.75,-14.50"/>
    </edge>
    <edge id=":gneJ11_6" function="internal">
        <lane id=":gneJ11_6_0" index="0" speed="6.62" length="9.27" width="3.50" shape="8.75,-14.50 9.11,-11.98 10.19,-10.19 11.98,-9.11 14.50,-8.75"/>
    </edge>
    <edge id=":gneJ11_7" function="internal">
        <lane id=":gneJ11_7_0" index="0" speed="13.89" length="29.00" width="3.50" shape="5.25,-14.50 5.25,14.50"/>
    </edge>
    <edge id=":gneJ11_8" function="internal">
        <lane id=":gneJ11_8_0" index="0" speed="10.44" length="24.82" width="3.50" shape="1.75,-14.50 0.29,-8.73 -3.50,-3.50 -8.73,0.29 -14.50,1.75"/>
    </edge>
    <edge id=":gneJ11_9" function="internal">
        <lane id=":gneJ11_9_0" index="0" speed="6.62" length="9.27" width="3.50" shape="-14.50,-8.75 -11.98,-9.11 -10.19,-10.19 -9.11,-11.98 -8.75,-14.50"/>
    </edge>
    <edge id=":gneJ11_10" function="internal">
        <lane id=":gneJ11_10_0" index="0" speed="13.89" length="29.00" width="3.50" shape="-14.50,-5.25 14.50,-5.25"/>
    </edge>
    <edge id=":gneJ11_11" function="internal">
        <lane id=":gneJ11_11_0" index="0" speed="10.44" length="24.82" width="3.50" shape="-14.50,-1.75 -8.73,-0.29 -3.50,3.50 0.29,8.73 1.75,14.50"/>
    </edge>

    <edge id="-b" from="gneJ11" to="gneJ12" priority="-1">
        <lane id="-b_0" index="0" speed="13.89" length="200.00" width="3.50" shape="-8.75,-14.50 -8.75,-214.50"/>
        <lane id="-b_1" index="1" speed="13.89" length="200.00" width="3.50" shape="-5.25,-14.50 -5.25,-214.50"/>
        <lane id="-b_2" index="2" speed="13.89" length="200.00" width="3.50" shape="-1.75,-14.50 -1.75,-214.50"/>
    </edge>
    <edge id="-l" from="gneJ11" to="gneJ10" priority="-1">
        <lane id="-l_0" index="0" speed="13.89" length="200.00" width="3.50" shape="-14.50,8.75 -214.50,8.75"/>
        <lane id="-l_1" index="1" speed="13.89" length="200.00" width="3.50" shape="-14.50,5.25 -214.50,5.25"/>
        <lane id="-l_2" index="2" speed="13.89" length="200.00" width="3.50" shape="-14.50,1.75 -214.50,1.75"/>
    </edge>
    <edge id="-r" from="gneJ11" to="gneJ14" priority="-1">
        <lane id="-r_0" index="0" speed="13.89" length="200.00" width="3.50" shape="14.50,-8.75 214.50,-8.75"/>
        <lane id="-r_1" index="1" speed="13.89" length="200.00" width="3.50" shape="14.50,-5.25 214.50,-5.25"/>
        <lane id="-r_2" index="2" speed="13.89" length="200.00" width="3.50" shape="14.50,-1.75 214.50,-1.75"/>
    </edge>
    <edge id="-u" from="gneJ11" to="gneJ15" priority="-1">
        <lane id="-u_0" index="0" speed="13.89" length="200.00" width="3.50" shape="8.75,14.50 8.75,214.50"/>
        <lane id="-u_1" index="1" speed="13.89" length="200.00" width="3.50" shape="5.25,14.50 5.25,214.50"/>
        <lane id="-u_2" index="2" speed="13.89" length="200.00" width="3.50" shape="1.75,14.50 1.75,214.50"/>
    </edge>
    <edge id="b" from="gneJ12" to="gneJ11" priority="-1">
        <lane id="b_0" index="0" speed="13.89" length="200.00" width="3.50" shape="8.75,-214.50 8.75,-14.50"/>
        <lane id="b_1" index="1" speed="13.89" length="200.00" width="3.50" shape="5.25,-214.50 5.25,-14.50"/>
        <lane id="b_2" index="2" speed="13.89" length="200.00" width="3.50" shape="1.75,-214.50 1.75,-14.50"/>
    </edge>
    <edge id="l" from="gneJ10" to="gneJ11" priority="-1">
        <lane id="l_0" index="0" speed="13.89" length="200.00" width="3.50" shape="-214.50,-8.75 -14.50,-8.75"/>
        <lane id="l_1" index="1" speed="13.89" length="200.00" width="3.50" shape="-214.50,-5.25 -14.50,-5.25"/>
        <lane id="l_2" index="2" speed="13.89" length="200.00" width="3.50" shape="-214.50,-1.75 -14.50,-1.75"/>
    </edge>
    <edge id="r" from="gneJ14" to="gneJ11" priority="-1">
        <lane id="r_0" index="0" speed="13.89" length="200.00" width="3.50" shape="214.50,8.75 14.50,8.75"/>
        <lane id="r_1" index="1" speed="13.89" length="200.00" width="3.50" shape="214.50,5.25 14.50,5.25"/>
        <lane id="r_2" index="2" speed="13.89" length="200.00" width="3.50" shape="214.50,1.75 14.50,1.75"/>
    </edge>
    <edge id="u" from="gneJ15" to="gneJ11" priority="-1">
        <lane id="u_0" index="0" speed="13.89" length="200.00" width="3.50" shape="-8.75,214.50 -8.75,14.50"/>
        <lane id="u_1" index="1" speed="13.89" length="200.00" width="3.50" shape="-5.25,214.50 -5.25,14.50"/>
        <lane id="u_2" index="2" speed="13.89" length="200.00" width="3.50" shape="-1.75,214.50 -1.75,14.50"/>
    </edge>

    <junction id="gneJ10" type="dead_end" x="-214.50" y="0.00" incLanes="-l_0 -l_1 -l_2" intLanes="" shape="-214.50,0.00 -214.50,10.50 -214.50,0.00"/>
    <junction id="gneJ11" type="district" x="0.00" y="0.00" incLanes="u_0 u_1 u_2 r_0 r_1 r_2 b_0 b_1 b_2 l_0 l_1 l_2" intLanes=":gneJ11_0_0 :gneJ11_1_0 :gneJ11_2_0 :gneJ11_3_0 :gneJ11_4_0 :gneJ11_5_0 :gneJ11_6_0 :gneJ11_7_0 :gneJ11_8_0 :gneJ11_9_0 :gneJ11_10_0 :gneJ11_11_0" shape="-10.50,14.50 10.50,14.50 10.94,12.28 11.50,11.50 12.28,10.94 13.28,10.61 14.50,10.50 14.50,-10.50 12.28,-10.94 11.50,-11.50 10.94,-12.28 10.61,-13.28 10.50,-14.50 -10.50,-14.50 -10.94,-12.28 -11.50,-11.50 -12.28,-10.94 -13.28,-10.61 -14.50,-10.50 -14.50,10.50 -12.28,10.94 -11.50,11.50 -10.94,12.28 -10.61,13.28"/>
    <junction id="gneJ12" type="dead_end" x="0.00" y="-214.50" incLanes="-b_0 -b_1 -b_2" intLanes="" shape="0.00,-214.50 -10.50,-214.50 0.00,-214.50"/>
    <junction id="gneJ14" type="dead_end" x="214.50" y="0.00" incLanes="-r_0 -r_1 -r_2" intLanes="" shape="214.50,0.00 214.50,-10.50 214.50,0.00"/>
    <junction id="gneJ15" type="dead_end" x="0.00" y="214.50" incLanes="-u_0 -u_1 -u_2" intLanes="" shape="0.00,214.50 10.50,214.50 0.00,214.50"/>

    <connection from="b" to="-r" fromLane="0" toLane="0" via=":gneJ11_6_0" dir="r" state="M"/>
    <connection from="b" to="-u" fromLane="1" toLane="1" via=":gneJ11_7_0" dir="s" state="M"/>
    <connection from="b" to="-l" fromLane="2" toLane="2" via=":gneJ11_8_0" dir="l" state="M"/>
    <connection from="l" to="-b" fromLane="0" toLane="0" via=":gneJ11_9_0" dir="r" state="M"/>
    <connection from="l" to="-r" fromLane="1" toLane="1" via=":gneJ11_10_0" dir="s" state="M"/>
    <connection from="l" to="-u" fromLane="2" toLane="2" via=":gneJ11_11_0" dir="l" state="M"/>
    <connection from="r" to="-u" fromLane="0" toLane="0" via=":gneJ11_3_0" dir="r" state="M"/>
    <connection from="r" to="-l" fromLane="1" toLane="1" via=":gneJ11_4_0" dir="s" state="M"/>
    <connection from="r" to="-b" fromLane="2" toLane="2" via=":gneJ11_5_0" dir="l" state="M"/>
    <connection from="u" to="-l" fromLane="0" toLane="0" via=":gneJ11_0_0" dir="r" state="M"/>
    <connection from="u" to="-b" fromLane="1" toLane="1" via=":gneJ11_1_0" dir="s" state="M"/>
    <connection from="u" to="-r" fromLane="2" toLane="2" via=":gneJ11_2_0" dir="l" state="M"/>

    <connection from=":gneJ11_0" to="-l" fromLane="0" toLane="0" dir="r" state="M"/>
    <connection from=":gneJ11_1" to="-b" fromLane="0" toLane="1" dir="s" state="M"/>
    <connection from=":gneJ11_2" to="-r" fromLane="0" toLane="2" dir="l" state="M"/>
    <connection from=":gneJ11_3" to="-u" fromLane="0" toLane="0" dir="r" state="M"/>
    <connection from=":gneJ11_4" to="-l" fromLane="0" toLane="1" dir="s" state="M"/>
    <connection from=":gneJ11_5" to="-b" fromLane="0" toLane="2" dir="l" state="M"/>
    <connection from=":gneJ11_6" to="-r" fromLane="0" toLane="0" dir="r" state="M"/>
    <connection from=":gneJ11_7" to="-u" fromLane="0" toLane="1" dir="s" state="M"/>
    <connection from=":gneJ11_8" to="-l" fromLane="0" toLane="2" dir="l" state="M"/>
    <connection from=":gneJ11_9" to="-b" fromLane="0" toLane="0" dir="r" state="M"/>
    <connection from=":gneJ11_10" to="-r" fromLane="0" toLane="1" dir="s" state="M"/>
    <connection from=":gneJ11_11" to="-u" fromLane="0" toLane="2" dir="l" state="M"/>

</net>
