<?xml version="1.0" encoding="UTF-8"?>

<!-- generated on 02/03/20 09:31:14 by Eclipse SUMO netedit Version 1.3.1
<configuration xmlns:xsi="http://www.w3.org/2001/XMLSchema-instance" xsi:noNamespaceSchemaLocation="http://sumo.dlr.de/xsd/netconvertConfiguration.xsd">

    <input>
        <sumo-net-file value="D:\sumo_projects\signal_intersection\junction.net.xml"/>
    </input>

    <output>
        <output-file value="D:\sumo_projects\signal_intersection\junction.net.xml"/>
    </output>

    <processing>
        <geometry.max-grade.fix value="false"/>
        <offset.disable-normalization value="true"/>
        <opposites.guess.fix-lengths value="true"/>
        <lefthand value="false"/>
    </processing>

    <junctions>
        <no-turnarounds value="true"/>
        <junctions.corner-detail value="5"/>
        <junctions.limit-turn-speed value="5.5"/>
        <rectangular-lane-cut value="false"/>
    </junctions>

    <pedestrian>
        <walkingareas value="false"/>
    </pedestrian>

</configuration>
-->

<net version="1.3" junctionCornerDetail="5" limitTurnSpeed="5.50" xmlns:xsi="http://www.w3.org/2001/XMLSchema-instance" xsi:noNamespaceSchemaLocation="http://sumo.dlr.de/xsd/net_file.xsd">

    <location netOffset="0.00,0.00" convBoundary="-214.50,-214.50,214.50,214.50" origBoundary="-10000000000.00,-10000000000.00,10000000000.00,10000000000.00" projParameter="!"/>

    <edge id=":gneJ11_0" function="internal">
        <lane id=":gneJ11_0_0" index="0" speed="4.00" length="9.27" width="3.50" shape="-8.75,14.50 -9.11,11.98 -10.19,10.19 -11.98,9.11 -14.50,8.75"/>
    </edge>
    <edge id=":gneJ11_1" function="internal">
        <lane id=":gneJ11_1_0" index="0" speed="13.89" length="29.00" width="3.50" shape="-5.25,14.50 -5.25,-14.50"/>
    </edge>
    <edge id=":gneJ11_2" function="internal">
        <lane id=":gneJ11_2_0" index="0" speed="4.00" length="14.49" width="3.50" shape="-1.75,14.50 -0.73,7.39 2.31,2.31 3.50,1.60"/>
    </edge>
    <edge id=":gneJ11_12" function="internal">
        <lane id=":gneJ11_12_0" index="0" speed="4.00" length="11.72" width="3.50" shape="3.50,1.60 7.39,-0.73 14.50,-1.75"/>
    </edge>
    <edge id=":gneJ11_3" function="internal">
        <lane id=":gneJ11_3_0" index="0" speed="4.00" length="9.27" width="3.50" shape="14.50,8.75 11.98,9.11 10.19,10.19 9.11,11.98 8.75,14.50"/>
    </edge>
    <edge id=":gneJ11_4" function="internal">
        <lane id=":gneJ11_4_0" index="0" speed="13.89" length="29.00" width="3.50" shape="14.50,5.25 -14.50,5.25"/>
    </edge>
    <edge id=":gneJ11_5" function="internal">
        <lane id=":gneJ11_5_0" index="0" speed="4.00" length="14.49" width="3.50" shape="14.50,1.75 7.39,0.73 2.31,-2.31 1.60,-3.50"/>
    </edge>
    <edge id=":gneJ11_13" function="internal">
        <lane id=":gneJ11_13_0" index="0" speed="4.00" length="11.72" width="3.50" shape="1.60,-3.50 -0.73,-7.39 -1.75,-14.50"/>
    </edge>
    <edge id=":gneJ11_6" function="internal">
        <lane id=":gneJ11_6_0" index="0" speed="4.00" length="9.27" width="3.50" shape="8.75,-14.50 9.11,-11.98 10.19,-10.19 11.98,-9.11 14.50,-8.75"/>
    </edge>
    <edge id=":gneJ11_7" function="internal">
        <lane id=":gneJ11_7_0" index="0" speed="13.89" length="29.00" width="3.50" shape="5.25,-14.50 5.25,14.50"/>
    </edge>
    <edge id=":gneJ11_8" function="internal">
        <lane id=":gneJ11_8_0" index="0" speed="4.00" length="14.49" width="3.50" shape="1.75,-14.50 0.73,-7.39 -2.31,-2.31 -3.50,-1.60"/>
    </edge>
    <edge id=":gneJ11_14" function="internal">
        <lane id=":gneJ11_14_0" index="0" speed="4.00" length="11.72" width="3.50" shape="-3.50,-1.60 -7.39,0.73 -14.50,1.75"/>
    </edge>
    <edge id=":gneJ11_9" function="internal">
        <lane id=":gneJ11_9_0" index="0" speed="4.00" length="9.27" width="3.50" shape="-14.50,-8.75 -11.98,-9.11 -10.19,-10.19 -9.11,-11.98 -8.75,-14.50"/>
    </edge>
    <edge id=":gneJ11_10" function="internal">
        <lane id=":gneJ11_10_0" index="0" speed="13.89" length="29.00" width="3.50" shape="-14.50,-5.25 14.50,-5.25"/>
    </edge>
    <edge id=":gneJ11_11" function="internal">
        <lane id=":gneJ11_11_0" index="0" speed="4.00" length="14.49" width="3.50" shape="-14.50,-1.75 -7.39,-0.73 -2.31,2.31 -1.60,3.50"/>
    </edge>
    <edge id=":gneJ11_15" function="internal">
        <lane id=":gneJ11_15_0" index="0" speed="4.00" length="11.72" width="3.50" shape="-1.60,3.50 0.73,7.39 1.75,14.50"/>
    </edge>

    <edge id="-b" from="gneJ11" to="gneJ12" priority="-1">
        <lane id="-b_0" index="0" speed="13.89" length="200.00" width="3.50" shape="-8.75,-14.50 -8.75,-214.50"/>
        <lane id="-b_1" index="1" speed="13.89" length="200.00" width="3.50" shape="-5.25,-14.50 -5.25,-214.50"/>
        <lane id="-b_2" index="2" speed="13.89" length="200.00" width="3.50" shape="-1.75,-14.50 -1.75,-214.50"/>
    </edge>
    <edge id="-l" from="gneJ11" to="gneJ10" priority="-1">
        <lane id="-l_0" index="0" speed="13.89" length="200.00" width="3.50" shape="-14.50,8.75 -214.50,8.75"/>
        <lane id="-l_1" index="1" speed="13.89" length="200.00" width="3.50" shape="-14.50,5.25 -214.50,5.25"/>
        <lane id="-l_2" index="2" speed="13.89" length="200.00" width="3.50" shape="-14.50,1.75 -214.50,1.75"/>
    </edge>
    <edge id="-r" from="gneJ11" to="gneJ14" priority="-1">
        <lane id="-r_0" index="0" speed="13.89" length="200.00" width="3.50" shape="14.50,-8.75 214.50,-8.75"/>
        <lane id="-r_1" index="1" speed="13.89" length="200.00" width="3.50" shape="14.50,-5.25 214.50,-5.25"/>
        <lane id="-r_2" index="2" speed="13.89" length="200.00" width="3.50" shape="14.50,-1.75 214.50,-1.75"/>
    </edge>
    <edge id="-u" from="gneJ11" to="gneJ15" priority="-1">
        <lane id="-u_0" index="0" speed="13.89" length="200.00" width="3.50" shape="8.75,14.50 8.75,214.50"/>
        <lane id="-u_1" index="1" speed="13.89" length="200.00" width="3.50" shape="5.25,14.50 5.25,214.50"/>
        <lane id="-u_2" index="2" speed="13.89" length="200.00" width="3.50" shape="1.75,14.50 1.75,214.50"/>
    </edge>
    <edge id="b" from="gneJ12" to="gneJ11" priority="-1">
        <lane id="b_0" index="0" speed="13.89" length="200.00" width="3.50" shape="8.75,-214.50 8.75,-14.50"/>
        <lane id="b_1" index="1" speed="13.89" length="200.00" width="3.50" shape="5.25,-214.50 5.25,-14.50"/>
        <lane id="b_2" index="2" speed="13.89" length="200.00" width="3.50" shape="1.75,-214.50 1.75,-14.50"/>
    </edge>
    <edge id="l" from="gneJ10" to="gneJ11" priority="-1">
        <lane id="l_0" index="0" speed="13.89" length="200.00" width="3.50" shape="-214.50,-8.75 -14.50,-8.75"/>
        <lane id="l_1" index="1" speed="13.89" length="200.00" width="3.50" shape="-214.50,-5.25 -14.50,-5.25"/>
        <lane id="l_2" index="2" speed="13.89" length="200.00" width="3.50" shape="-214.50,-1.75 -14.50,-1.75"/>
    </edge>
    <edge id="r" from="gneJ14" to="gneJ11" priority="-1">
        <lane id="r_0" index="0" speed="13.89" length="200.00" width="3.50" shape="214.50,8.75 14.50,8.75"/>
        <lane id="r_1" index="1" speed="13.89" length="200.00" width="3.50" shape="214.50,5.25 14.50,5.25"/>
        <lane id="r_2" index="2" speed="13.89" length="200.00" width="3.50" shape="214.50,1.75 14.50,1.75"/>
    </edge>
    <edge id="u" from="gneJ15" to="gneJ11" priority="-1">
        <lane id="u_0" index="0" speed="13.89" length="200.00" width="3.50" shape="-8.75,214.50 -8.75,14.50"/>
        <lane id="u_1" index="1" speed="13.89" length="200.00" width="3.50" shape="-5.25,214.50 -5.25,14.50"/>
        <lane id="u_2" index="2" speed="13.89" length="200.00" width="3.50" shape="-1.75,214.50 -1.75,14.50"/>
    </edge>

    <tlLogic id="gneJ11" type="static" programID="0" offset="0">
        <phase duration="33" state="GGgGrrGGgGrr"/>
        <phase duration="3"  state="yygyrryygyrr"/>
        <phase duration="6"  state="rrGrrrrrGrrr"/>
        <phase duration="3"  state="rryrrrrryrrr"/>
        <phase duration="33" state="GrrGGgGrrGGg"/>
        <phase duration="3"  state="yrryygyrryyg"/>
        <phase duration="6"  state="rrrrrGrrrrrG"/>
        <phase duration="3"  state="rrrrryrrrrry"/>
    </tlLogic>
    <tlLogic id="gneJ11" type="static" programID="1" offset="0">
        <phase duration="33" state="GGgGrrGGgGrr"/>
        <phase duration="3"  state="yygyrryygyrr"/>
        <phase duration="6"  state="rrGrrrrrGrrr"/>
        <phase duration="3"  state="rryrrrrryrrr"/>
        <phase duration="33" state="GrrGGgGrrGGg"/>
        <phase duration="3"  state="yrryygyrryyg"/>
        <phase duration="6"  state="rrrrrGrrrrrG"/>
        <phase duration="3"  state="rrrrryrrrrry"/>
    </tlLogic>

    <junction id="gneJ10" type="dead_end" x="-214.50" y="0.00" incLanes="-l_0 -l_1 -l_2" intLanes="" shape="-214.50,0.00 -214.50,10.50 -214.50,0.00"/>
    <junction id="gneJ11" type="traffic_light" x="0.00" y="0.00" incLanes="u_0 u_1 u_2 r_0 r_1 r_2 b_0 b_1 b_2 l_0 l_1 l_2" intLanes=":gneJ11_0_0 :gneJ11_1_0 :gneJ11_12_0 :gneJ11_3_0 :gneJ11_4_0 :gneJ11_13_0 :gneJ11_6_0 :gneJ11_7_0 :gneJ11_14_0 :gneJ11_9_0 :gneJ11_10_0 :gneJ11_15_0" shape="-10.50,14.50 10.50,14.50 10.94,12.28 11.50,11.50 12.28,10.94 13.28,10.61 14.50,10.50 14.50,-10.50 12.28,-10.94 11.50,-11.50 10.94,-12.28 10.61,-13.28 10.50,-14.50 -10.50,-14.50 -10.94,-12.28 -11.50,-11.50 -12.28,-10.94 -13.28,-10.61 -14.50,-10.50 -14.50,10.50 -12.28,10.94 -11.50,11.50 -10.94,12.28 -10.61,13.28">
        <request index="0"  response="000000000000" foes="000000000000" cont="0"/>
        <request index="1"  response="100000000000" foes="110100010000" cont="0"/>
        <request index="2"  response="100010100000" foes="100010110000" cont="1"/>
        <request index="3"  response="000000000000" foes="000000000000" cont="0"/>
        <request index="4"  response="000010000110" foes="100010000110" cont="0"/>
        <request index="5"  response="010110000100" foes="010110000100" cont="1"/>
        <request index="6"  response="000000000000" foes="000000000000" cont="0"/>
        <request index="7"  response="000000100000" foes="010000110100" cont="0"/>
        <request index="8"  response="100000100010" foes="110000100010" cont="1"/>
        <request index="9"  response="000000000000" foes="000000000000" cont="0"/>
        <request index="10" response="000110000010" foes="000110100010" cont="0"/>
        <request index="11" response="000100010110" foes="000100010110" cont="1"/>
    </junction>
    <junction id="gneJ12" type="dead_end" x="0.00" y="-214.50" incLanes="-b_0 -b_1 -b_2" intLanes="" shape="0.00,-214.50 -10.50,-214.50 0.00,-214.50"/>
    <junction id="gneJ14" type="dead_end" x="214.50" y="0.00" incLanes="-r_0 -r_1 -r_2" intLanes="" shape="214.50,0.00 214.50,-10.50 214.50,0.00"/>
    <junction id="gneJ15" type="dead_end" x="0.00" y="214.50" incLanes="-u_0 -u_1 -u_2" intLanes="" shape="0.00,214.50 10.50,214.50 0.00,214.50"/>

    <junction id=":gneJ11_12_0" type="internal" x="3.50" y="1.60" incLanes=":gneJ11_2_0 b_1" intLanes=":gneJ11_4_0 :gneJ11_5_0 :gneJ11_7_0 :gneJ11_11_0"/>
    <junction id=":gneJ11_13_0" type="internal" x="1.60" y="-3.50" incLanes=":gneJ11_5_0 l_1" intLanes=":gneJ11_2_0 :gneJ11_7_0 :gneJ11_8_0 :gneJ11_10_0"/>
    <junction id=":gneJ11_14_0" type="internal" x="-3.50" y="-1.60" incLanes=":gneJ11_8_0 u_1" intLanes=":gneJ11_1_0 :gneJ11_5_0 :gneJ11_10_0 :gneJ11_11_0"/>
    <junction id=":gneJ11_15_0" type="internal" x="-1.60" y="3.50" incLanes=":gneJ11_11_0 r_1" intLanes=":gneJ11_1_0 :gneJ11_2_0 :gneJ11_4_0 :gneJ11_8_0"/>

    <connection from="b" to="-r" fromLane="0" toLane="0" speed="4.00" via=":gneJ11_6_0" tl="gneJ11" linkIndex="6" dir="r" state="O"/>
    <connection from="b" to="-u" fromLane="1" toLane="1" via=":gneJ11_7_0" tl="gneJ11" linkIndex="7" dir="s" state="O"/>
    <connection from="b" to="-l" fromLane="2" toLane="2" speed="4.00" via=":gneJ11_8_0" tl="gneJ11" linkIndex="8" dir="l" state="o"/>
    <connection from="l" to="-b" fromLane="0" toLane="0" speed="4.00" via=":gneJ11_9_0" tl="gneJ11" linkIndex="9" dir="r" state="O"/>
    <connection from="l" to="-r" fromLane="1" toLane="1" via=":gneJ11_10_0" tl="gneJ11" linkIndex="10" dir="s" state="o"/>
    <connection from="l" to="-u" fromLane="2" toLane="2" speed="4.00" via=":gneJ11_11_0" tl="gneJ11" linkIndex="11" dir="l" state="o"/>
    <connection from="r" to="-u" fromLane="0" toLane="0" speed="4.00" via=":gneJ11_3_0" tl="gneJ11" linkIndex="3" dir="r" state="O"/>
    <connection from="r" to="-l" fromLane="1" toLane="1" via=":gneJ11_4_0" tl="gneJ11" linkIndex="4" dir="s" state="o"/>
    <connection from="r" to="-b" fromLane="2" toLane="2" speed="4.00" via=":gneJ11_5_0" tl="gneJ11" linkIndex="5" dir="l" state="o"/>
    <connection from="u" to="-l" fromLane="0" toLane="0" speed="4.00" via=":gneJ11_0_0" tl="gneJ11" linkIndex="0" dir="r" state="O"/>
    <connection from="u" to="-b" fromLane="1" toLane="1" via=":gneJ11_1_0" tl="gneJ11" linkIndex="1" dir="s" state="O"/>
    <connection from="u" to="-r" fromLane="2" toLane="2" speed="4.00" via=":gneJ11_2_0" tl="gneJ11" linkIndex="2" dir="l" state="o"/>

    <connection from=":gneJ11_0" to="-l" fromLane="0" toLane="0" dir="r" state="M"/>
    <connection from=":gneJ11_1" to="-b" fromLane="0" toLane="1" dir="s" state="M"/>
    <connection from=":gneJ11_2" to="-r" fromLane="0" toLane="2" via=":gneJ11_12_0" dir="l" state="m"/>
    <connection from=":gneJ11_12" to="-r" fromLane="0" toLane="2" dir="l" state="M"/>
    <connection from=":gneJ11_3" to="-u" fromLane="0" toLane="0" dir="r" state="M"/>
    <connection from=":gneJ11_4" to="-l" fromLane="0" toLane="1" dir="s" state="M"/>
    <connection from=":gneJ11_5" to="-b" fromLane="0" toLane="2" via=":gneJ11_13_0" dir="l" state="m"/>
    <connection from=":gneJ11_13" to="-b" fromLane="0" toLane="2" dir="l" state="M"/>
    <connection from=":gneJ11_6" to="-r" fromLane="0" toLane="0" dir="r" state="M"/>
    <connection from=":gneJ11_7" to="-u" fromLane="0" toLane="1" dir="s" state="M"/>
    <connection from=":gneJ11_8" to="-l" fromLane="0" toLane="2" via=":gneJ11_14_0" dir="l" state="m"/>
    <connection from=":gneJ11_14" to="-l" fromLane="0" toLane="2" dir="l" state="M"/>
    <connection from=":gneJ11_9" to="-b" fromLane="0" toLane="0" dir="r" state="M"/>
    <connection from=":gneJ11_10" to="-r" fromLane="0" toLane="1" dir="s" state="M"/>
    <connection from=":gneJ11_11" to="-u" fromLane="0" toLane="2" via=":gneJ11_15_0" dir="l" state="m"/>
    <connection from=":gneJ11_15" to="-u" fromLane="0" toLane="2" dir="l" state="M"/>

</net>
